** ---------------------------------------------------------------------
*Material, name=Material-HastelloyX
*Conductivity
 43.39e-3,20.0
 44.21e-3,100.0
 43.98e-3,200.0
 42.00e-3,300.0
 39.30e-3,400.0
 36.44e-3,500.0
 33.51e-3,600.0
 30.65e-3,700.0
 23.64e-3,800.0
 26.18e-3,900.0
 27.76e-3,1000.0
 28.98e-3,1100.0
 30.25e-3,1200.0
 33.11e-3,1425.0
496.65e-3,1500.0
496.65e-3,1700.0
*Density
 8351.910158e-09
*Specific Heat
 474.14,20.
 487.37,100.
 500.60,200.
 520.65,300.
 545.01,400.
 572.00,500.
 601.06,600.
 632.08,700.
 693.15,900.
 690.66,1000.
 688.18,1100.
 685.71,1200.
 680.15,1425.
 680.15,1500.0
 680.15,1700.0
*Latent Heat
225.00e+3,1357.6,1700,
	