*Heading
** Job name: Job-HT_Cmodel_v34_10mm_24844_4-5-cond15 Model name: Model-HT
** Generated by: Abaqus/CAE 2023
*Preprint, echo=NO, model=NO, history=NO, contact=NO
**
** PARTS
**
*Part, name=Part-lpbf
*End Part
**  
*Part, name=Part-substrate
*End Part
**  
**
** ASSEMBLY
**
*Assembly, name=Assembly
**  
*Instance, name=Part-substrate-1, part=Part-substrate
          5.,          10.,          -6.
          5.,          10.,          -6., 6.00000001268805,          10.,          -6., 89.9999992730282
*Node
      1,          -5.,         5.25,           0.
      2,          -5.,         5.25,          10.
      3,          -5.,           6.,          10.
      4,          -5.,           6.,           0.
      5,           5.,         5.25,          10.
      6,           5.,           6.,          10.
      7,           5.,           6.,           0.
      8,           5.,         5.25,           0.
      9,          -5.,          4.5,          10.
     10,          -5.,          4.5,           0.
     11,          -5.,           3.,           0.
     12,          -5.,           3.,          10.
     13,           5.,          4.5,           0.
     14,           5.,           3.,           0.
     15,           5.,           3.,          10.
     16,           5.,          4.5,          10.
     17,           5.,           0.,          10.
     18,           5.,           0.,           0.
     19,          -5.,           0.,          10.
     20,          -5.,           0.,           0.
** ... 7477 like lines cut
*Element, type=DC3D8
   1,  162,  981, 3166,  715,    1,   21,  449,   72
   2,  981,  982, 3167, 3166,   21,   22,  450,  449
   3,  982,  983, 3168, 3167,   22,   23,  451,  450
   4,  983,  984, 3169, 3168,   23,   24,  452,  451
   5,  984,  985, 3170, 3169,   24,   25,  453,  452
   6,  985,  986, 3171, 3170,   25,   26,  454,  453
   7,  986,  987, 3172, 3171,   26,   27,  455,  454
   8,  987,  988, 3173, 3172,   27,   28,  456,  455
   9,  988,  989, 3174, 3173,   28,   29,  457,  456
  10,  989,  990, 3175, 3174,   29,   30,  458,  457
  11,  990,  991, 3176, 3175,   30,   31,  459,  458
  12,  991,  992, 3177, 3176,   31,   32,  460,  459
  13,  992,  993, 3178, 3177,   32,   33,  461,  460
  14,  993,  994, 3179, 3178,   33,   34,  462,  461
  15,  994,  995, 3180, 3179,   34,   35,  463,  462
  16,  995,  996, 3181, 3180,   35,   36,  464,  463
  17,  996,  997, 3182, 3181,   36,   37,  465,  464
  18,  997,  998, 3183, 3182,   37,   38,  466,  465
  19,  998,  999, 3184, 3183,   38,   39,  467,  466
  20,  999,  182,  848, 3184,   39,    2,   40,  467
** ... 6380 like lines cut
*Nset, nset=Set-substrate, generate
    1,  7497,     1
*Elset, elset=Set-substrate, generate
    1,  6400,     1
*Nset, nset=Set-substrate_bottom
   17,   18,   19,   20,  367,  368,  369,  370,  371,  372,  373,  374,  375,  376,  377,  378
  379,  380,  381,  382,  383,  384,  385,  390,  391,  392,  393,  394,  395,  396,  397,  398
  399,  400,  401,  402,  403,  404,  405,  406,  407,  408,  411,  412,  413,  414,  415,  416
  417,  418,  419,  420,  421,  422,  423,  424,  425,  426,  427,  428,  429,  430,  431,  432
  433,  434,  435,  436,  437,  438,  439,  440,  441,  442,  443,  444,  445,  446,  447,  448
 2805, 2806, 2807, 2808, 2809, 2810, 2811, 2812, 2813, 2814, 2815, 2816, 2817, 2818, 2819, 2820
 2821, 2822, 2823, 2824, 2825, 2826, 2827, 2828, 2829, 2830, 2831, 2832, 2833, 2834, 2835, 2836
 2837, 2838, 2839, 2840, 2841, 2842, 2843, 2844, 2845, 2846, 2847, 2848, 2849, 2850, 2851, 2852
 2853, 2854, 2855, 2856, 2857, 2858, 2859, 2860, 2861, 2862, 2863, 2864, 2865, 2866, 2867, 2868
 2869, 2870, 2871, 2872, 2873, 2874, 2875, 2876, 2877, 2878, 2879, 2880, 2881, 2882, 2883, 2884
 2885, 2886, 2887, 2888, 2889, 2890, 2891, 2892, 2893, 2894, 2895, 2896, 2897, 2898, 2899, 2900
 2901, 2902, 2903, 2904, 2905, 2906, 2907, 2908, 2909, 2910, 2911, 2912, 2913, 2914, 2915, 2916
 2917, 2918, 2919, 2920, 2921, 2922, 2923, 2924, 2925, 2926, 2927, 2928, 2929, 2930, 2931, 2932
 2933, 2934, 2935, 2936, 2937, 2938, 2939, 2940, 2941, 2942, 2943, 2944, 2945, 2946, 2947, 2948
 2949, 2950, 2951, 2952, 2953, 2954, 2955, 2956, 2957, 2958, 2959, 2960, 2961, 2962, 2963, 2964
 2965, 2966, 2967, 2968, 2969, 2970, 2971, 2972, 2973, 2974, 2975, 2976, 2977, 2978, 2979, 2980
 2981, 2982, 2983, 2984, 2985, 2986, 2987, 2988, 2989, 2990, 2991, 2992, 2993, 2994, 2995, 2996
 2997, 2998, 2999, 3000, 3001, 3002, 3003, 3004, 3005, 3006, 3007, 3008, 3009, 3010, 3011, 3012
 3013, 3014, 3015, 3016, 3017, 3018, 3019, 3020, 3021, 3022, 3023, 3024, 3025, 3026, 3027, 3028
 3029, 3030, 3031, 3032, 3033, 3034, 3035, 3036, 3037, 3038, 3039, 3040, 3041, 3042, 3043, 3044
** ... 8 like lines cut
*Elset, elset=Set-substrate_bottom
 5241, 5242, 5243, 5244, 5245, 5246, 5247, 5248, 5249, 5250, 5251, 5252, 5253, 5254, 5255, 5256
 5257, 5258, 5259, 5260, 5301, 5302, 5303, 5304, 5305, 5306, 5307, 5308, 5309, 5310, 5311, 5312
 5313, 5314, 5315, 5316, 5317, 5318, 5319, 5320, 5361, 5362, 5363, 5364, 5365, 5366, 5367, 5368
 5369, 5370, 5371, 5372, 5373, 5374, 5375, 5376, 5377, 5378, 5379, 5380, 5421, 5422, 5423, 5424
 5425, 5426, 5427, 5428, 5429, 5430, 5431, 5432, 5433, 5434, 5435, 5436, 5437, 5438, 5439, 5440
 5481, 5482, 5483, 5484, 5485, 5486, 5487, 5488, 5489, 5490, 5491, 5492, 5493, 5494, 5495, 5496
 5497, 5498, 5499, 5500, 5541, 5542, 5543, 5544, 5545, 5546, 5547, 5548, 5549, 5550, 5551, 5552
 5553, 5554, 5555, 5556, 5557, 5558, 5559, 5560, 5601, 5602, 5603, 5604, 5605, 5606, 5607, 5608
 5609, 5610, 5611, 5612, 5613, 5614, 5615, 5616, 5617, 5618, 5619, 5620, 5661, 5662, 5663, 5664
 5665, 5666, 5667, 5668, 5669, 5670, 5671, 5672, 5673, 5674, 5675, 5676, 5677, 5678, 5679, 5680
 5721, 5722, 5723, 5724, 5725, 5726, 5727, 5728, 5729, 5730, 5731, 5732, 5733, 5734, 5735, 5736
 5737, 5738, 5739, 5740, 5781, 5782, 5783, 5784, 5785, 5786, 5787, 5788, 5789, 5790, 5791, 5792
 5793, 5794, 5795, 5796, 5797, 5798, 5799, 5800, 5841, 5842, 5843, 5844, 5845, 5846, 5847, 5848
 5849, 5850, 5851, 5852, 5853, 5854, 5855, 5856, 5857, 5858, 5859, 5860, 5901, 5902, 5903, 5904
 5905, 5906, 5907, 5908, 5909, 5910, 5911, 5912, 5913, 5914, 5915, 5916, 5917, 5918, 5919, 5920
 5961, 5962, 5963, 5964, 5965, 5966, 5967, 5968, 5969, 5970, 5971, 5972, 5973, 5974, 5975, 5976
 5977, 5978, 5979, 5980, 6021, 6022, 6023, 6024, 6025, 6026, 6027, 6028, 6029, 6030, 6031, 6032
 6033, 6034, 6035, 6036, 6037, 6038, 6039, 6040, 6081, 6082, 6083, 6084, 6085, 6086, 6087, 6088
 6089, 6090, 6091, 6092, 6093, 6094, 6095, 6096, 6097, 6098, 6099, 6100, 6141, 6142, 6143, 6144
 6145, 6146, 6147, 6148, 6149, 6150, 6151, 6152, 6153, 6154, 6155, 6156, 6157, 6158, 6159, 6160
** ... 5 like lines cut
*Elset, elset=_Surf-substrate_top_S5, internal
  141,  142,  143,  144,  145,  146,  147,  148,  149,  150,  151,  152,  153,  154,  155,  156
  157,  158,  159,  160,  301,  302,  303,  304,  305,  306,  307,  308,  309,  310,  311,  312
  313,  314,  315,  316,  317,  318,  319,  320,  461,  462,  463,  464,  465,  466,  467,  468
  469,  470,  471,  472,  473,  474,  475,  476,  477,  478,  479,  480,  621,  622,  623,  624
  625,  626,  627,  628,  629,  630,  631,  632,  633,  634,  635,  636,  637,  638,  639,  640
  781,  782,  783,  784,  785,  786,  787,  788,  789,  790,  791,  792,  793,  794,  795,  796
  797,  798,  799,  800,  941,  942,  943,  944,  945,  946,  947,  948,  949,  950,  951,  952
  953,  954,  955,  956,  957,  958,  959,  960, 1101, 1102, 1103, 1104, 1105, 1106, 1107, 1108
 1109, 1110, 1111, 1112, 1113, 1114, 1115, 1116, 1117, 1118, 1119, 1120, 1261, 1262, 1263, 1264
 1265, 1266, 1267, 1268, 1269, 1270, 1271, 1272, 1273, 1274, 1275, 1276, 1277, 1278, 1279, 1280
 1421, 1422, 1423, 1424, 1425, 1426, 1427, 1428, 1429, 1430, 1431, 1432, 1433, 1434, 1435, 1436
 1437, 1438, 1439, 1440, 1581, 1582, 1583, 1584, 1585, 1586, 1587, 1588, 1589, 1590, 1591, 1592
 1593, 1594, 1595, 1596, 1597, 1598, 1599, 1600, 1741, 1742, 1743, 1744, 1745, 1746, 1747, 1748
 1749, 1750, 1751, 1752, 1753, 1754, 1755, 1756, 1757, 1758, 1759, 1760, 1901, 1902, 1903, 1904
 1905, 1906, 1907, 1908, 1909, 1910, 1911, 1912, 1913, 1914, 1915, 1916, 1917, 1918, 1919, 1920
 2061, 2062, 2063, 2064, 2065, 2066, 2067, 2068, 2069, 2070, 2071, 2072, 2073, 2074, 2075, 2076
 2077, 2078, 2079, 2080, 2221, 2222, 2223, 2224, 2225, 2226, 2227, 2228, 2229, 2230, 2231, 2232
 2233, 2234, 2235, 2236, 2237, 2238, 2239, 2240, 2381, 2382, 2383, 2384, 2385, 2386, 2387, 2388
 2389, 2390, 2391, 2392, 2393, 2394, 2395, 2396, 2397, 2398, 2399, 2400, 2541, 2542, 2543, 2544
 2545, 2546, 2547, 2548, 2549, 2550, 2551, 2552, 2553, 2554, 2555, 2556, 2557, 2558, 2559, 2560
** ... 5 like lines cut
*Surface, type=ELEMENT, name=Surf-substrate_top
_Surf-substrate_top_S5, S5
*Elset, elset=_Surf-substrate_bottom_S5, internal
 5241, 5242, 5243, 5244, 5245, 5246, 5247, 5248, 5249, 5250, 5251, 5252, 5253, 5254, 5255, 5256
 5257, 5258, 5259, 5260, 5301, 5302, 5303, 5304, 5305, 5306, 5307, 5308, 5309, 5310, 5311, 5312
 5313, 5314, 5315, 5316, 5317, 5318, 5319, 5320, 5361, 5362, 5363, 5364, 5365, 5366, 5367, 5368
 5369, 5370, 5371, 5372, 5373, 5374, 5375, 5376, 5377, 5378, 5379, 5380, 5421, 5422, 5423, 5424
 5425, 5426, 5427, 5428, 5429, 5430, 5431, 5432, 5433, 5434, 5435, 5436, 5437, 5438, 5439, 5440
 5481, 5482, 5483, 5484, 5485, 5486, 5487, 5488, 5489, 5490, 5491, 5492, 5493, 5494, 5495, 5496
 5497, 5498, 5499, 5500, 5541, 5542, 5543, 5544, 5545, 5546, 5547, 5548, 5549, 5550, 5551, 5552
 5553, 5554, 5555, 5556, 5557, 5558, 5559, 5560, 5601, 5602, 5603, 5604, 5605, 5606, 5607, 5608
 5609, 5610, 5611, 5612, 5613, 5614, 5615, 5616, 5617, 5618, 5619, 5620, 5661, 5662, 5663, 5664
 5665, 5666, 5667, 5668, 5669, 5670, 5671, 5672, 5673, 5674, 5675, 5676, 5677, 5678, 5679, 5680
 5721, 5722, 5723, 5724, 5725, 5726, 5727, 5728, 5729, 5730, 5731, 5732, 5733, 5734, 5735, 5736
 5737, 5738, 5739, 5740, 5781, 5782, 5783, 5784, 5785, 5786, 5787, 5788, 5789, 5790, 5791, 5792
 5793, 5794, 5795, 5796, 5797, 5798, 5799, 5800, 5841, 5842, 5843, 5844, 5845, 5846, 5847, 5848
 5849, 5850, 5851, 5852, 5853, 5854, 5855, 5856, 5857, 5858, 5859, 5860, 5901, 5902, 5903, 5904
 5905, 5906, 5907, 5908, 5909, 5910, 5911, 5912, 5913, 5914, 5915, 5916, 5917, 5918, 5919, 5920
 5961, 5962, 5963, 5964, 5965, 5966, 5967, 5968, 5969, 5970, 5971, 5972, 5973, 5974, 5975, 5976
 5977, 5978, 5979, 5980, 6021, 6022, 6023, 6024, 6025, 6026, 6027, 6028, 6029, 6030, 6031, 6032
 6033, 6034, 6035, 6036, 6037, 6038, 6039, 6040, 6081, 6082, 6083, 6084, 6085, 6086, 6087, 6088
 6089, 6090, 6091, 6092, 6093, 6094, 6095, 6096, 6097, 6098, 6099, 6100, 6141, 6142, 6143, 6144
 6145, 6146, 6147, 6148, 6149, 6150, 6151, 6152, 6153, 6154, 6155, 6156, 6157, 6158, 6159, 6160
** ... 5 like lines cut
*Surface, type=ELEMENT, name=Surf-substrate_bottom
_Surf-substrate_bottom_S5, S5
** Section: Section-Inc718
*Solid Section, elset=Set-substrate, material=Material-HX
,
*End Instance
**  
*Instance, name=Part-lpbf-1, part=Part-lpbf
          5.,          10.,          -6.
          5.,          10.,          -6., 6.00000001268805,          10.,          -6., 89.9999992730282
*Node
      1,          -5.,           6.,          10.
      2,          -5.,   6.03000021,          10.
      3,          -5.,   6.05999994,          10.
      4,          -5.,   6.09000015,          10.
      5,          -5.,   6.11999989,          10.
      6,          -5.,    6.1500001,          10.
      7,          -5.,   6.17999983,          10.
      8,          -5.,   6.21000004,          10.
      9,          -5.,   6.23999977,          10.
     10,          -5.,   6.26999998,          10.
     11,          -5.,   6.30000019,          10.
     12,          -5.,           6.,          9.5
     13,          -5.,   6.03000021,          9.5
     14,          -5.,   6.05999994,          9.5
     15,          -5.,   6.09000015,          9.5
     16,          -5.,   6.11999989,          9.5
     17,          -5.,    6.1500001,          9.5
     18,          -5.,   6.17999983,          9.5
     19,          -5.,   6.21000004,          9.5
     20,          -5.,   6.23999977,          9.5
** ... 4831 like lines cut
*Element, type=DC3D8
   1,  232,  233,  244,  243,    1,    2,   13,   12
   2,  233,  234,  245,  244,    2,    3,   14,   13
   3,  234,  235,  246,  245,    3,    4,   15,   14
   4,  235,  236,  247,  246,    4,    5,   16,   15
   5,  236,  237,  248,  247,    5,    6,   17,   16
   6,  237,  238,  249,  248,    6,    7,   18,   17
   7,  238,  239,  250,  249,    7,    8,   19,   18
   8,  239,  240,  251,  250,    8,    9,   20,   19
   9,  240,  241,  252,  251,    9,   10,   21,   20
  10,  241,  242,  253,  252,   10,   11,   22,   21
  11,  243,  244,  255,  254,   12,   13,   24,   23
  12,  244,  245,  256,  255,   13,   14,   25,   24
  13,  245,  246,  257,  256,   14,   15,   26,   25
  14,  246,  247,  258,  257,   15,   16,   27,   26
  15,  247,  248,  259,  258,   16,   17,   28,   27
  16,  248,  249,  260,  259,   17,   18,   29,   28
  17,  249,  250,  261,  260,   18,   19,   30,   29
  18,  250,  251,  262,  261,   19,   20,   31,   30
  19,  251,  252,  263,  262,   20,   21,   32,   31
  20,  252,  253,  264,  263,   21,   22,   33,   32
** ... 3980 like lines cut
*Nset, nset=Set-lpbf, generate
    1,  4851,     1
*Elset, elset=Set-lpbf, generate
    1,  4000,     1
*Elset, elset=_Surf-lpbf_bottom_S6, internal, generate
    1,  3991,    10
*Surface, type=ELEMENT, name=Surf-lpbf_bottom
_Surf-lpbf_bottom_S6, S6
** Section: Section-Inc718
*Solid Section, elset=Set-lpbf, material=Material-HX
,
*End Instance
**  
*Nset, nset=Set-all, instance=Part-substrate-1, generate
    1,  7497,     1
*Nset, nset=Set-all, instance=Part-lpbf-1, generate
    1,  4851,     1
*Elset, elset=Set-all, instance=Part-substrate-1, generate
    1,  6400,     1
*Elset, elset=Set-all, instance=Part-lpbf-1, generate
    1,  4000,     1
*Elset, elset=Set-layer1, instance=Part-lpbf-1, generate
    1,  3991,    10
*Elset, elset=Set-layer2, instance=Part-lpbf-1, generate
    2,  3992,    10
*Elset, elset=Set-layer3, instance=Part-lpbf-1, generate
    3,  3993,    10
*Elset, elset=Set-layer4, instance=Part-lpbf-1, generate
    4,  3994,    10
*Elset, elset=Set-layer5, instance=Part-lpbf-1, generate
    5,  3995,    10
*Elset, elset=Set-layer6, instance=Part-lpbf-1, generate
    6,  3996,    10
*Elset, elset=Set-layer7, instance=Part-lpbf-1, generate
    7,  3997,    10
*Elset, elset=Set-layer8, instance=Part-lpbf-1, generate
    8,  3998,    10
*Elset, elset=Set-layer9, instance=Part-lpbf-1, generate
    9,  3999,    10
*Elset, elset=Set-layer10, instance=Part-lpbf-1, generate
   10,  4000,    10
** Constraint: Constraint-Tie_lpbf_substrate
*Tie, name=Constraint-Tie_lpbf_substrate, adjust=yes
Part-substrate-1.Surf-substrate_top, Part-lpbf-1.Surf-lpbf_bottom
*Element Progressive Activation, name=ElementProgressiveActivation1, elset=Part-lpbf-1.Set-lpbf
*End Assembly
*Amplitude, name=Amp-layer1, time=TOTAL TIME
11, 0.0, 11.0001, 1.0, 11.001, 1.0, 11.0011, 0.0
*Amplitude, name=Amp-layer2, time=TOTAL TIME
23, 0.0, 23.0001, 1.0, 23.001, 1.0, 23.0011, 0.0
*Amplitude, name=Amp-layer3, time=TOTAL TIME
35, 0.0, 35.0001, 1.0, 35.001, 1.0, 35.0011, 0.0
*Amplitude, name=Amp-layer4, time=TOTAL TIME
47, 0.0, 47.0001, 1.0, 47.001, 1.0, 47.0011, 0.0
*Amplitude, name=Amp-layer5, time=TOTAL TIME
59, 0.0, 59.0001, 1.0, 59.001, 1.0, 59.0011, 0.0
*Amplitude, name=Amp-layer6, time=TOTAL TIME
71, 0.0, 71.0001, 1.0, 71.001, 1.0, 71.00110000000001, 0.0
*Amplitude, name=Amp-layer7, time=TOTAL TIME
83, 0.0, 83.0001, 1.0, 83.001, 1.0, 83.00110000000001, 0.0
*Amplitude, name=Amp-layer8, time=TOTAL TIME
95, 0.0, 95.0001, 1.0, 95.001, 1.0, 95.00110000000001, 0.0
*Amplitude, name=Amp-layer9, time=TOTAL TIME
107, 0.0, 107.0001, 1.0, 107.001, 1.0, 107.00110000000001, 0.0
*Amplitude, name=Amp-layer10, time=TOTAL TIME
119, 0.0, 119.0001, 1.0, 119.001, 1.0, 119.00110000000001, 0.0
** 
** MATERIALS
** 
*Material, name=Material-HX
*Conductivity
 0.015,
*Density
 8.22e-06,
*Specific Heat
486.,
*Time Points, name=TimePoints-4phases, GENERATE
0, 11, 1
11, 11.015, 0.001
11.015, 13, 0.01
13, 23, 1
23, 23.015, 0.001
23.015, 25, 0.01
25, 35, 1
35, 35.015, 0.001
35.015, 37, 0.01
37, 47, 1
47, 47.015, 0.001
47.015, 49, 0.01
49, 59, 1
59, 59.015, 0.001
59.015, 61, 0.01
61, 71, 1
71, 71.015, 0.001
71.015, 73, 0.01
73, 83, 1
83, 83.015, 0.001
** ... 11 like lines cut
** 
** PHYSICAL CONSTANTS
** 
*Physical Constants, absolute zero=-273.15, stefan boltzmann=5.67e-14
*Parameter table type, name="ABQ_AM_MaterialDeposition", parameters=2
STRING,,"Event series",,,
STRING,,"Deposition process",,"Roller|Bead"
*Parameter table type, name="ABQ_AM_MaterialDeposition_Advanced", parameters=6
STRING,"Partial","Activation type",,"Full|Partial"
FLOAT,0.,"Min volume fraction threshold for partial activation",,,
FLOAT,0.,"Max volume fraction threshold for partial activation",,,
FLOAT,0.,"Max volume fraction threshold for full activation",,,
STRING,"Yes","Orientation for bead type deposition",,,
INTEGER,0,"Element subdivision order",,,
*Parameter table type, name="ABQ_AM_MaterialDeposition_Bead", parameters=5
STRING,,"Stack direction",,"X|Y|Z"
FLOAT,0.,"Bead height",,,
FLOAT,0.,"Bead width",,,
FLOAT,0.,"Activation offset",,,
STRING,,"Deposition position",,"Below|Above"
*Parameter table type, name="ABQ_AM_MovingHeatSource", parameters=2
STRING,,"Event series",,,
STRING,,"Energy distribution",,"Concentrated|Uniform|Goldak"
*Parameter table type, name="ABQ_AM_MovingHeatSource_Advanced", parameters=7
STRING,"False","Enhance energy conservation",,"True|False"
STRING,"False","Control increment size",,"True|False"
STRING,"Relative","Offset type",,"Absolute|Relative"
FLOAT,0.,"Vector x",,,
FLOAT,0.,"Vector y",,,
FLOAT,-1.,"Vector z",,,
FLOAT,1.,"Field factor",,,
*Parameter table type, name="ABQ_AM_MovingHeatSource_Goldak", parameters=10
INTEGER,0,"Subdiv x",,,
INTEGER,0,"Subdiv y",,,
INTEGER,0,"Subdiv z",,,
FLOAT,0.,"a",,,
FLOAT,0.,"b",,,
FLOAT,0.,"cf",,,
FLOAT,0.,"cr",,,
FLOAT,0.,"ff",,,
FLOAT,0.,"fr",,,
FLOAT,0.,"Box size factor",,,
*Parameter table type, name="ABQ_AM_MovingHeatSource_Uniform", parameters=9
INTEGER,0,"Subdiv x",,,
INTEGER,0,"Subdiv y",,,
INTEGER,0,"Subdiv z",,,
FLOAT,0.,"Offset x",,,
FLOAT,0.,"Offset y",,,
FLOAT,0.,"Offset z",,,
FLOAT,0.,"Box length x",,,
FLOAT,0.,"Box length y",,,
FLOAT,0.,"Box length z",,,
*Property table type, name="ABQ_AM_AbsorptionCoeff", properties=1
"Absorption Coefficient"
*Table collection, name="ABQ_AM.Material Input"
*Parameter Table, type="ABQ_AM_MaterialDeposition" ,label="ABQ_AM_MaterialDeposition"
"Event series-roller", Roller
*Parameter Table, type="ABQ_AM_MaterialDeposition_Advanced" ,label="ABQ_AM_MaterialDeposition_Advanced"
Full, 0., 0., 0.9, Yes, 0
*Parameter Table, type="ABQ_AM_MaterialDeposition_Bead" ,label="ABQ_AM_MaterialDeposition_Bead"
X, 0., 0., 0., Below
*Table collection, name="ABQ_AM.Moving Heat Source"
*Parameter Table, type="ABQ_AM_MovingHeatSource" ,label="ABQ_AM_MovingHeatSource"
"Event series-laser_layer", Uniform
*Parameter Table, type="ABQ_AM_MovingHeatSource_Advanced" ,label="ABQ_AM_MovingHeatSource_Advanced"
False, False, Relative, 0., 0., -1., 1.
*Parameter Table, type="ABQ_AM_MovingHeatSource_Goldak" ,label="ABQ_AM_MovingHeatSource_Goldak"
0, 0, 0, 0., 0., 0., 0., 0., 0., 0.
*Parameter Table, type="ABQ_AM_MovingHeatSource_Uniform" ,label="ABQ_AM_MovingHeatSource_Uniform"
0, 0, 0, 0., 0., 0., 15., 15., 0.03
*Property table, type="ABQ_AM_AbsorptionCoeff", label="ABQ_AM_AbsorptionCoeff"
0.7
** 
** PREDEFINED FIELDS
** 
** Name: Predefined Field-1   Type: Temperature
*Initial Conditions, type=TEMPERATURE
Set-all, 25.
** 
** EVENT SERIES TYPE
** 
*Event series type, name="ABQ_AM_HeatSourceTrajectory_RuleID", fields=1
"Rule ID"
** 
** EVENT SERIES TYPE
** 
*Event series type, name="ABQ_AM_MaterialDeposition", fields=1
"On/Off State"
** 
** EVENT SERIES TYPE
** 
*Event series type, name="ABQ_AM_PowerMagnitude", fields=1
"Power Magnitude (unit of JT^-1)"
** 
** EVENT SERIES DATA
** 
*Event series, name="Event series-laser_layer", type="ABQ_AM_PowerMagnitude"
4.5,4.5,5.,0.03,450000.
4.501,5.5,5.,0.03,0.
9.05,4.5,5.,0.06,450000.
9.051,5.5,5.,0.06,0.
13.6,4.5,5.,0.09,450000.
13.601,5.5,5.,0.09,0.
18.15,4.5,5.,0.12,450000.
18.151,5.5,5.,0.12,0.
22.7,4.5,5.,0.15,450000.
22.701,5.5,5.,0.15,0.
27.25,4.5,5.,0.18,450000.
27.251,5.5,5.,0.18,0.
31.8,4.5,5.,0.21,450000.
31.801,5.5,5.,0.21,0.
36.35,4.5,5.,0.24,450000.
36.351,5.5,5.,0.24,0.
40.9,4.5,5.,0.27,450000.
40.901,5.5,5.,0.27,0.
45.45,4.5,5.,0.3,450000.
45.451,5.5,5.,0.3,0.
** 
** EVENT SERIES DATA
** 
*Event series, name="Event series-roller", type="ABQ_AM_MaterialDeposition"
3, -1, 0, 0.03, 1
11, 11, 0, 0.03, 0
15, -1, 0, 0.06, 1
23, 11, 0, 0.06, 0
27, -1, 0, 0.09, 1
35, 11, 0, 0.09, 0
39, -1, 0, 0.12, 1
47, 11, 0, 0.12, 0
51, -1, 0, 0.15, 1
59, 11, 0, 0.15, 0
63, -1, 0, 0.18, 1
71, 11, 0, 0.18, 0
75, -1, 0, 0.21, 1
83, 11, 0, 0.21, 0
87, -1, 0, 0.24, 1
95, 11, 0, 0.24, 0
99, -1, 0, 0.27, 1
107, 11, 0, 0.27, 0
111, -1, 0, 0.3, 1
119, 11, 0, 0.3, 0
** ----------------------------------------------------------------
** 
** STEP: Step-heating
** 
*Step, name=Step-heating, nlgeom=NO, inc=100000
*Heat Transfer, end=PERIOD, deltmx=500.
0.001, 130, 1e-06, 1., 
** 
** BOUNDARY CONDITIONS
** 
** Name: BC-buildplateT Type: Temperature
*Boundary
Part-substrate-1.Set-substrate_bottom, 11, 11, 25.
** 
** LOADS
** 
** Name: Load-layer1   Type: Body heat flux
*Dflux, amplitude=Amp-layer1
Set-layer1, BF, 24844.
** Name: Load-layer2   Type: Body heat flux
*Dflux, amplitude=Amp-layer2
Set-layer2, BF, 24844.
** Name: Load-layer3   Type: Body heat flux
*Dflux, amplitude=Amp-layer3
Set-layer3, BF, 24844.
** Name: Load-layer4   Type: Body heat flux
*Dflux, amplitude=Amp-layer4
Set-layer4, BF, 24844.
** Name: Load-layer5   Type: Body heat flux
*Dflux, amplitude=Amp-layer5
Set-layer5, BF, 24844.
** Name: Load-layer6   Type: Body heat flux
*Dflux, amplitude=Amp-layer6
Set-layer6, BF, 24844.
** Name: Load-layer7   Type: Body heat flux
*Dflux, amplitude=Amp-layer7
Set-layer7, BF, 24844.
** Name: Load-layer8   Type: Body heat flux
*Dflux, amplitude=Amp-layer8
Set-layer8, BF, 24844.
** Name: Load-layer9   Type: Body heat flux
*Dflux, amplitude=Amp-layer9
Set-layer9, BF, 24844.
** Name: Load-layer10   Type: Body heat flux
*Dflux, amplitude=Amp-layer10
Set-layer10, BF, 24844.
** 
** INTERACTIONS
** 
** Interaction: Int-Conv
*Film
Set-all, FFS, 25., 2.5e-05
** Interaction: Int-Rad
*Radiate
Set-all, RFS, 25., 0.
** 
** OUTPUT REQUESTS
** 
*Restart, write, frequency=0
** 
** FIELD OUTPUT: F-Output-1
** 
*Output, field, time points=TimePoints-4phases
*Node Output
NT, 
*Output, history, frequency=0
*Activate elements, activation=ElementProgressiveActivation1, expansion time constant=2.
"ABQ_AM.Material Input"
*End Step
