*Heading
** Job name: Job-HT_Cmodel_v33_thinwall_0-22mm_82353_4-5-cond15 Model name: Model-HT
** Generated by: Abaqus/CAE 2023
*Preprint, echo=NO, model=NO, history=NO, contact=NO
**
** PARTS
**
*Part, name=Part-lpbf
*End Part
**  
*Part, name=Part-substrate
*End Part
**  
**
** ASSEMBLY
**
*Assembly, name=Assembly
**  
*Instance, name=Part-substrate-1, part=Part-substrate
          5.,          10.,          -6.
          5.,          10.,          -6., 6.00000001268805,          10.,          -6., 89.9999992730282
*Node
      1,          -5.,         5.25,           0.
      2,          -5.,         5.25,  0.219999999
      3,          -5.,           6.,  0.219999999
      4,          -5.,           6.,           0.
      5,           5.,         5.25,  0.219999999
      6,           5.,           6.,  0.219999999
      7,           5.,           6.,           0.
      8,           5.,         5.25,           0.
      9,          -5.,          4.5,  0.219999999
     10,          -5.,          4.5,           0.
     11,          -5.,           3.,           0.
     12,          -5.,           3.,  0.219999999
     13,           5.,          4.5,           0.
     14,           5.,           3.,           0.
     15,           5.,           3.,  0.219999999
     16,           5.,          4.5,  0.219999999
     17,           5.,           0.,  0.219999999
     18,           5.,           0.,           0.
     19,          -5.,           0.,  0.219999999
     20,          -5.,           0.,           0.
** ... 1408 like lines cut
*Element, type=DC3D8
  1,   94,  573,  973,  307,    1,   21,  279,   38
  2,  573,  574,  974,  973,   21,   22,  280,  279
  3,  574,  114,  440,  974,   22,    2,   23,  280
  4,  307,  973,  975,  308,   38,  279,  281,   37
  5,  973,  974,  976,  975,  279,  280,  282,  281
  6,  974,  440,  441,  976,  280,   23,   24,  282
  7,  308,  975,  977,  309,   37,  281,  283,   36
  8,  975,  976,  978,  977,  281,  282,  284,  283
  9,  976,  441,  442,  978,  282,   24,   25,  284
 10,  309,  977,  979,  310,   36,  283,  285,   35
 11,  977,  978,  980,  979,  283,  284,  286,  285
 12,  978,  442,  443,  980,  284,   25,   26,  286
 13,  310,  979,  981,  311,   35,  285,  287,   34
 14,  979,  980,  982,  981,  285,  286,  288,  287
 15,  980,  443,  444,  982,  286,   26,   27,  288
 16,  311,  981,  983,  312,   34,  287,  289,   33
 17,  981,  982,  984,  983,  287,  288,  290,  289
 18,  982,  444,  445,  984,  288,   27,   28,  290
 19,  312,  983,  985,  313,   33,  289,  291,   32
 20,  983,  984,  986,  985,  289,  290,  292,  291
** ... 940 like lines cut
*Nset, nset=Set-substrate, generate
    1,  1428,     1
*Elset, elset=Set-substrate, generate
   1,  960,    1
*Nset, nset=Set-substrate_bottom
  17,  18,  19,  20, 231, 232, 237, 238, 241, 242, 243, 244, 245, 246, 247, 248
 249, 250, 251, 252, 253, 254, 255, 256, 257, 258, 259, 260, 261, 262, 263, 264
 265, 266, 267, 268, 269, 270, 271, 272, 273, 274, 275, 276, 277, 278, 935, 936
 937, 938, 939, 940, 941, 942, 943, 944, 945, 946, 947, 948, 949, 950, 951, 952
 953, 954, 955, 956, 957, 958, 959, 960, 961, 962, 963, 964, 965, 966, 967, 968
 969, 970, 971, 972
*Elset, elset=Set-substrate_bottom
 787, 788, 789, 796, 797, 798, 805, 806, 807, 814, 815, 816, 823, 824, 825, 832
 833, 834, 841, 842, 843, 850, 851, 852, 859, 860, 861, 868, 869, 870, 877, 878
 879, 886, 887, 888, 895, 896, 897, 904, 905, 906, 913, 914, 915, 922, 923, 924
 931, 932, 933, 940, 941, 942, 949, 950, 951, 958, 959, 960
*Elset, elset=_Surf-substrate_top_S5, internal
  22,  23,  24,  46,  47,  48,  70,  71,  72,  94,  95,  96, 118, 119, 120, 142
 143, 144, 166, 167, 168, 190, 191, 192, 214, 215, 216, 238, 239, 240, 262, 263
 264, 286, 287, 288, 310, 311, 312, 334, 335, 336, 358, 359, 360, 382, 383, 384
 406, 407, 408, 430, 431, 432, 454, 455, 456, 478, 479, 480
*Surface, type=ELEMENT, name=Surf-substrate_top
_Surf-substrate_top_S5, S5
*Elset, elset=_Surf-substrate_bottom_S5, internal
 787, 788, 789, 796, 797, 798, 805, 806, 807, 814, 815, 816, 823, 824, 825, 832
 833, 834, 841, 842, 843, 850, 851, 852, 859, 860, 861, 868, 869, 870, 877, 878
 879, 886, 887, 888, 895, 896, 897, 904, 905, 906, 913, 914, 915, 922, 923, 924
 931, 932, 933, 940, 941, 942, 949, 950, 951, 958, 959, 960
*Surface, type=ELEMENT, name=Surf-substrate_bottom
_Surf-substrate_bottom_S5, S5
** Section: Section-Inc718
*Solid Section, elset=Set-substrate, material=Material-HX
,
*End Instance
**  
*Instance, name=Part-lpbf-1, part=Part-lpbf
          5.,          10.,          -6.
          5.,          10.,          -6., 6.00000001268805,          10.,          -6., 89.9999992730282
*Node
      1,          -5.,           6.,  0.219999999
      2,          -5.,   6.03000021,  0.219999999
      3,          -5.,   6.05999994,  0.219999999
      4,          -5.,   6.09000015,  0.219999999
      5,          -5.,   6.11999989,  0.219999999
      6,          -5.,    6.1500001,  0.219999999
      7,          -5.,   6.17999983,  0.219999999
      8,          -5.,   6.21000004,  0.219999999
      9,          -5.,   6.23999977,  0.219999999
     10,          -5.,   6.26999998,  0.219999999
     11,          -5.,   6.30000019,  0.219999999
     12,          -5.,           6.,  0.146666661
     13,          -5.,   6.03000021,  0.146666661
     14,          -5.,   6.05999994,  0.146666661
     15,          -5.,   6.09000015,  0.146666661
     16,          -5.,   6.11999989,  0.146666661
     17,          -5.,    6.1500001,  0.146666661
     18,          -5.,   6.17999983,  0.146666661
     19,          -5.,   6.21000004,  0.146666661
     20,          -5.,   6.23999977,  0.146666661
** ... 904 like lines cut
*Element, type=DC3D8
  1,  45,  46,  57,  56,   1,   2,  13,  12
  2,  46,  47,  58,  57,   2,   3,  14,  13
  3,  47,  48,  59,  58,   3,   4,  15,  14
  4,  48,  49,  60,  59,   4,   5,  16,  15
  5,  49,  50,  61,  60,   5,   6,  17,  16
  6,  50,  51,  62,  61,   6,   7,  18,  17
  7,  51,  52,  63,  62,   7,   8,  19,  18
  8,  52,  53,  64,  63,   8,   9,  20,  19
  9,  53,  54,  65,  64,   9,  10,  21,  20
 10,  54,  55,  66,  65,  10,  11,  22,  21
 11,  56,  57,  68,  67,  12,  13,  24,  23
 12,  57,  58,  69,  68,  13,  14,  25,  24
 13,  58,  59,  70,  69,  14,  15,  26,  25
 14,  59,  60,  71,  70,  15,  16,  27,  26
 15,  60,  61,  72,  71,  16,  17,  28,  27
 16,  61,  62,  73,  72,  17,  18,  29,  28
 17,  62,  63,  74,  73,  18,  19,  30,  29
 18,  63,  64,  75,  74,  19,  20,  31,  30
 19,  64,  65,  76,  75,  20,  21,  32,  31
 20,  65,  66,  77,  76,  21,  22,  33,  32
** ... 580 like lines cut
*Nset, nset=Set-lpbf, generate
   1,  924,    1
*Elset, elset=Set-lpbf, generate
   1,  600,    1
*Elset, elset=_Surf-lpbf_bottom_S6, internal, generate
   1,  591,   10
*Surface, type=ELEMENT, name=Surf-lpbf_bottom
_Surf-lpbf_bottom_S6, S6
** Section: Section-Inc718
*Solid Section, elset=Set-lpbf, material=Material-HX
,
*End Instance
**  
*Nset, nset=Set-all, instance=Part-substrate-1, generate
    1,  1428,     1
*Nset, nset=Set-all, instance=Part-lpbf-1, generate
   1,  924,    1
*Elset, elset=Set-all, instance=Part-substrate-1, generate
   1,  960,    1
*Elset, elset=Set-all, instance=Part-lpbf-1, generate
   1,  600,    1
*Elset, elset=Set-layer1, instance=Part-lpbf-1, generate
   1,  591,   10
*Elset, elset=Set-layer2, instance=Part-lpbf-1, generate
   2,  592,   10
*Elset, elset=Set-layer3, instance=Part-lpbf-1, generate
   3,  593,   10
*Elset, elset=Set-layer4, instance=Part-lpbf-1, generate
   4,  594,   10
*Elset, elset=Set-layer5, instance=Part-lpbf-1, generate
   5,  595,   10
*Elset, elset=Set-layer6, instance=Part-lpbf-1, generate
   6,  596,   10
*Elset, elset=Set-layer7, instance=Part-lpbf-1, generate
   7,  597,   10
*Elset, elset=Set-layer8, instance=Part-lpbf-1, generate
   8,  598,   10
*Elset, elset=Set-layer9, instance=Part-lpbf-1, generate
   9,  599,   10
*Elset, elset=Set-layer10, instance=Part-lpbf-1, generate
  10,  600,   10
** Constraint: Constraint-Tie_lpbf_substrate
*Tie, name=Constraint-Tie_lpbf_substrate, adjust=yes
Part-substrate-1.Surf-substrate_top, Part-lpbf-1.Surf-lpbf_bottom
*Element Progressive Activation, name=ElementProgressiveActivation1, elset=Part-lpbf-1.Set-lpbf
*End Assembly
*Amplitude, name=Amp-layer1, time=TOTAL TIME
11, 0.0, 11.0001, 1.0, 11.001, 1.0, 11.0011, 0.0
*Amplitude, name=Amp-layer2, time=TOTAL TIME
23, 0.0, 23.0001, 1.0, 23.001, 1.0, 23.0011, 0.0
*Amplitude, name=Amp-layer3, time=TOTAL TIME
35, 0.0, 35.0001, 1.0, 35.001, 1.0, 35.0011, 0.0
*Amplitude, name=Amp-layer4, time=TOTAL TIME
47, 0.0, 47.0001, 1.0, 47.001, 1.0, 47.0011, 0.0
*Amplitude, name=Amp-layer5, time=TOTAL TIME
59, 0.0, 59.0001, 1.0, 59.001, 1.0, 59.0011, 0.0
*Amplitude, name=Amp-layer6, time=TOTAL TIME
71, 0.0, 71.0001, 1.0, 71.001, 1.0, 71.00110000000001, 0.0
*Amplitude, name=Amp-layer7, time=TOTAL TIME
83, 0.0, 83.0001, 1.0, 83.001, 1.0, 83.00110000000001, 0.0
*Amplitude, name=Amp-layer8, time=TOTAL TIME
95, 0.0, 95.0001, 1.0, 95.001, 1.0, 95.00110000000001, 0.0
*Amplitude, name=Amp-layer9, time=TOTAL TIME
107, 0.0, 107.0001, 1.0, 107.001, 1.0, 107.00110000000001, 0.0
*Amplitude, name=Amp-layer10, time=TOTAL TIME
119, 0.0, 119.0001, 1.0, 119.001, 1.0, 119.00110000000001, 0.0
** 
** MATERIALS
** 
*Material, name=Material-HX
*Conductivity
 0.0200,
*Density
 4.09e-06,
*Specific Heat
1130.,
*Time Points, name=TimePoints-4phases, GENERATE
0, 11, 1
11, 11.015, 0.001
11.015, 13, 0.01
13, 23, 1
23, 23.015, 0.001
23.015, 25, 0.01
25, 35, 1
35, 35.015, 0.001
35.015, 37, 0.01
37, 47, 1
47, 47.015, 0.001
47.015, 49, 0.01
49, 59, 1
59, 59.015, 0.001
59.015, 61, 0.01
61, 71, 1
71, 71.015, 0.001
71.015, 73, 0.01
73, 83, 1
83, 83.015, 0.001
** ... 11 like lines cut
** 
** PHYSICAL CONSTANTS
** 
*Physical Constants, absolute zero=-273.15, stefan boltzmann=5.67e-14
*Parameter table type, name="ABQ_AM_MaterialDeposition", parameters=2
STRING,,"Event series",,,
STRING,,"Deposition process",,"Roller|Bead"
*Parameter table type, name="ABQ_AM_MaterialDeposition_Advanced", parameters=6
STRING,"Partial","Activation type",,"Full|Partial"
FLOAT,0.,"Min volume fraction threshold for partial activation",,,
FLOAT,0.,"Max volume fraction threshold for partial activation",,,
FLOAT,0.,"Max volume fraction threshold for full activation",,,
STRING,"Yes","Orientation for bead type deposition",,,
INTEGER,0,"Element subdivision order",,,
*Parameter table type, name="ABQ_AM_MaterialDeposition_Bead", parameters=5
STRING,,"Stack direction",,"X|Y|Z"
FLOAT,0.,"Bead height",,,
FLOAT,0.,"Bead width",,,
FLOAT,0.,"Activation offset",,,
STRING,,"Deposition position",,"Below|Above"
*Parameter table type, name="ABQ_AM_MovingHeatSource", parameters=2
STRING,,"Event series",,,
STRING,,"Energy distribution",,"Concentrated|Uniform|Goldak"
*Parameter table type, name="ABQ_AM_MovingHeatSource_Advanced", parameters=7
STRING,"False","Enhance energy conservation",,"True|False"
STRING,"False","Control increment size",,"True|False"
STRING,"Relative","Offset type",,"Absolute|Relative"
FLOAT,0.,"Vector x",,,
FLOAT,0.,"Vector y",,,
FLOAT,-1.,"Vector z",,,
FLOAT,1.,"Field factor",,,
*Parameter table type, name="ABQ_AM_MovingHeatSource_Goldak", parameters=10
INTEGER,0,"Subdiv x",,,
INTEGER,0,"Subdiv y",,,
INTEGER,0,"Subdiv z",,,
FLOAT,0.,"a",,,
FLOAT,0.,"b",,,
FLOAT,0.,"cf",,,
FLOAT,0.,"cr",,,
FLOAT,0.,"ff",,,
FLOAT,0.,"fr",,,
FLOAT,0.,"Box size factor",,,
*Parameter table type, name="ABQ_AM_MovingHeatSource_Uniform", parameters=9
INTEGER,0,"Subdiv x",,,
INTEGER,0,"Subdiv y",,,
INTEGER,0,"Subdiv z",,,
FLOAT,0.,"Offset x",,,
FLOAT,0.,"Offset y",,,
FLOAT,0.,"Offset z",,,
FLOAT,0.,"Box length x",,,
FLOAT,0.,"Box length y",,,
FLOAT,0.,"Box length z",,,
*Property table type, name="ABQ_AM_AbsorptionCoeff", properties=1
"Absorption Coefficient"
*Table collection, name="ABQ_AM.Material Input"
*Parameter Table, type="ABQ_AM_MaterialDeposition" ,label="ABQ_AM_MaterialDeposition"
"Event series-roller", Roller
*Parameter Table, type="ABQ_AM_MaterialDeposition_Advanced" ,label="ABQ_AM_MaterialDeposition_Advanced"
Full, 0., 0., 0.9, Yes, 0
*Parameter Table, type="ABQ_AM_MaterialDeposition_Bead" ,label="ABQ_AM_MaterialDeposition_Bead"
X, 0., 0., 0., Below
*Table collection, name="ABQ_AM.Moving Heat Source"
*Parameter Table, type="ABQ_AM_MovingHeatSource" ,label="ABQ_AM_MovingHeatSource"
"Event series-laser_layer", Uniform
*Parameter Table, type="ABQ_AM_MovingHeatSource_Advanced" ,label="ABQ_AM_MovingHeatSource_Advanced"
False, False, Relative, 0., 0., -1., 1.
*Parameter Table, type="ABQ_AM_MovingHeatSource_Goldak" ,label="ABQ_AM_MovingHeatSource_Goldak"
0, 0, 0, 0., 0., 0., 0., 0., 0., 0.
*Parameter Table, type="ABQ_AM_MovingHeatSource_Uniform" ,label="ABQ_AM_MovingHeatSource_Uniform"
0, 0, 0, 0., 0., 0., 15., 15., 0.03
*Property table, type="ABQ_AM_AbsorptionCoeff", label="ABQ_AM_AbsorptionCoeff"
0.7
** 
** PREDEFINED FIELDS
** 
** Name: Predefined Field-1   Type: Temperature
*Initial Conditions, type=TEMPERATURE
Set-all, 25.
** 
** EVENT SERIES TYPE
** 
*Event series type, name="ABQ_AM_HeatSourceTrajectory_RuleID", fields=1
"Rule ID"
** 
** EVENT SERIES TYPE
** 
*Event series type, name="ABQ_AM_MaterialDeposition", fields=1
"On/Off State"
** 
** EVENT SERIES TYPE
** 
*Event series type, name="ABQ_AM_PowerMagnitude", fields=1
"Power Magnitude (unit of JT^-1)"
** 
** EVENT SERIES DATA
** 
*Event series, name="Event series-laser_layer", type="ABQ_AM_PowerMagnitude"
4.5,4.5,5.,0.03,450000.
4.501,5.5,5.,0.03,0.
9.05,4.5,5.,0.06,450000.
9.051,5.5,5.,0.06,0.
13.6,4.5,5.,0.09,450000.
13.601,5.5,5.,0.09,0.
18.15,4.5,5.,0.12,450000.
18.151,5.5,5.,0.12,0.
22.7,4.5,5.,0.15,450000.
22.701,5.5,5.,0.15,0.
27.25,4.5,5.,0.18,450000.
27.251,5.5,5.,0.18,0.
31.8,4.5,5.,0.21,450000.
31.801,5.5,5.,0.21,0.
36.35,4.5,5.,0.24,450000.
36.351,5.5,5.,0.24,0.
40.9,4.5,5.,0.27,450000.
40.901,5.5,5.,0.27,0.
45.45,4.5,5.,0.3,450000.
45.451,5.5,5.,0.3,0.
** 
** EVENT SERIES DATA
** 
*Event series, name="Event series-roller", type="ABQ_AM_MaterialDeposition"
3, -1, 0, 0.03, 1
11, 11, 0, 0.03, 0
15, -1, 0, 0.06, 1
23, 11, 0, 0.06, 0
27, -1, 0, 0.09, 1
35, 11, 0, 0.09, 0
39, -1, 0, 0.12, 1
47, 11, 0, 0.12, 0
51, -1, 0, 0.15, 1
59, 11, 0, 0.15, 0
63, -1, 0, 0.18, 1
71, 11, 0, 0.18, 0
75, -1, 0, 0.21, 1
83, 11, 0, 0.21, 0
87, -1, 0, 0.24, 1
95, 11, 0, 0.24, 0
99, -1, 0, 0.27, 1
107, 11, 0, 0.27, 0
111, -1, 0, 0.3, 1
119, 11, 0, 0.3, 0
** ----------------------------------------------------------------
** 
** STEP: Step-heating
** 
*Step, name=Step-heating, nlgeom=NO, inc=100000
*Heat Transfer, end=PERIOD, deltmx=500.
0.001, 130, 1e-06, 1., 
** 
** BOUNDARY CONDITIONS
** 
** Name: BC-buildplateT Type: Temperature
*Boundary
Part-substrate-1.Set-substrate_bottom, 11, 11, 25.
** 
** LOADS
** 
** Name: Load-layer1   Type: Body heat flux
*Dflux, amplitude=Amp-layer1
Set-layer1, BF, 82353.
** Name: Load-layer2   Type: Body heat flux
*Dflux, amplitude=Amp-layer2
Set-layer2, BF, 82353.
** Name: Load-layer3   Type: Body heat flux
*Dflux, amplitude=Amp-layer3
Set-layer3, BF, 82353.
** Name: Load-layer4   Type: Body heat flux
*Dflux, amplitude=Amp-layer4
Set-layer4, BF, 82353.
** Name: Load-layer5   Type: Body heat flux
*Dflux, amplitude=Amp-layer5
Set-layer5, BF, 82353.
** Name: Load-layer6   Type: Body heat flux
*Dflux, amplitude=Amp-layer6
Set-layer6, BF, 82353.
** Name: Load-layer7   Type: Body heat flux
*Dflux, amplitude=Amp-layer7
Set-layer7, BF, 82353.
** Name: Load-layer8   Type: Body heat flux
*Dflux, amplitude=Amp-layer8
Set-layer8, BF, 82353.
** Name: Load-layer9   Type: Body heat flux
*Dflux, amplitude=Amp-layer9
Set-layer9, BF, 82353.
** Name: Load-layer10   Type: Body heat flux
*Dflux, amplitude=Amp-layer10
Set-layer10, BF, 82353.
** 
** INTERACTIONS
** 
** Interaction: Int-Conv
*Film
Set-all, FFS, 25., 2.0e-05
** Interaction: Int-Rad
*Radiate
Set-all, RFS, 25., 0.
** 
** OUTPUT REQUESTS
** 
*Restart, write, frequency=0
** 
** FIELD OUTPUT: F-Output-1
** 
*Output, field, time points=TimePoints-4phases
*Node Output
NT, 
*Output, history, frequency=0
*Activate elements, activation=ElementProgressiveActivation1, expansion time constant=2.
"ABQ_AM.Material Input"
*End Step
